@<TRIPOS>MOLECULE
*****
 26 22 0 0 0
SMALL
GASTEIGER

@<TRIPOS>ATOM
      1 Y          -5.5425    6.6594   -0.0000 Y       1  UNL1        0.0000
      2 Y          -5.5425   -4.1762    0.0000 Y       1  UNL1        0.0000
      3 Y          -4.3954    6.6236    0.0000 Y       1  UNL1        0.0000
      4 Y          -2.9257    6.2660    0.0000 Y       1  UNL1        0.0000
      5 Y          -2.2087    5.0859    0.0000 Y       1  UNL1        0.0000
      6 Y          -1.7785    3.2979    0.0000 Y       1  UNL1        0.0000
      7 Y          -2.1370    1.7601    0.0000 Y       1  UNL1        0.0000
      8 Y          -3.3200    0.6516    0.0000 Y       1  UNL1        0.0000
      9 Y          -5.6142    0.6158    0.0000 Y       1  UNL1        0.0000
     10 Y          -4.5654    0.1668    0.0000 Y       1  UNL1        0.0000
     11 Y          -3.1427   -0.8789    0.0000 Y       1  UNL1        0.0000
     12 Y          -2.5812   -2.4475    0.0000 Y       1  UNL1        0.0000
     13 Y          -2.4314   -4.2776    0.0000 Y       1  UNL1        0.0000
     14 Y           0.6011    6.7400    0.0000 Y       1  UNL1        0.0000
     15 Y           4.0454    6.6653    0.0000 Y       1  UNL1        0.0000
     16 Y           2.3233    3.0052    0.0000 Y       1  UNL1        0.0000
     17 Y           3.6711    1.7727    0.0000 Y       2  UNL2        0.0000
     18 Y           1.0504   -0.3934    0.0000 Y       2  UNL2        0.0000
     19 Y           3.5588   -2.6618    0.0576 Y       2  UNL2        0.0000
     20 Y           3.7085   -0.4681    0.0000 Y       2  UNL2        0.0000
     21 Y           0.8316   -5.3396   -0.3251 Y       3  UNL3        0.0000
     22 Y           0.8695   -3.3746   -0.2368 Y       3  UNL3        0.0000
     23 Y           1.2108   -4.4704   -0.2879 Y       3  UNL3        0.0000
     24 Y           2.3104   -3.6010   -0.2542 Y       3  UNL3        0.0000
     25 Y           3.4859   -4.4321   -0.2975 Y       3  UNL3        0.0000
     26 Y           3.5238   -5.7547   -0.3573 Y       3  UNL3        0.0000
@<TRIPOS>BOND
     1     1     2    1
     2     1     3    1
     3     3     4    1
     4     4     5    1
     5     5     6    1
     6     6     7    1
     7     7     8    1
     8     8     9    1
     9     9    10    1
    10    10    11    1
    11    11    12    1
    12    12    13    1
    13    14    15    1
    14    15    16    1
    15    17    18    1
    16    17    19    1
    17    18    20    1
    18    21    22    1
    19    21    23    1
    20    23    24    1
    21    24    25    1
    22    25    26    1
